Andes_118_power_flow_test/118_converted_from_UNCC_to_PSSE_format.raw
0,   100.00, 32, 0, 0, 60.00     / PSS®E-32.0    WED, MAR 16 2016  17:09
IEEE118 BUS STUDY CASE
CONVERTED FROM UNCC FORMAT BY SCRIPT
     1,'RIVERSDE    ',138.0000,2,   1,   1,   1, 0.95701,  10.9734
     2,'POKAGON     ',138.0000,1,   1,   1,   1, 0.97216,  11.5289
     3,'HICKRYCK    ',138.0000,1,   1,   1,   1, 0.96882,  11.8714
     4,'NWCARLSL    ',138.0000,2,   1,   1,   1, 0.99800,  15.6084
     5,'OLIVE       ',138.0000,1,   1,   1,   1, 1.00161,  16.0590
     6,'KANKAKEE    ',138.0000,2,   1,   1,   1, 0.98540,  13.3786
     7,'JACKSNRD    ',138.0000,1,   1,   1,   1, 0.98647,  12.9113
     8,'OLIVE       ',138.0000,2,   1,   1,   1, 1.01500,  21.0841
     9,'BEQUINE     ',138.0000,1,   1,   1,   1, 1.04292,  28.3382
    10,'BREED       ',138.0000,2,   1,   1,   1, 1.05000,  35.9191
    11,'SOUTHBND    ',138.0000,1,   1,   1,   1, 0.98491,  13.0370
    12,'TWINBRCH    ',138.0000,2,   1,   1,   1, 0.99000,  12.5149
    13,'CONCORD     ',138.0000,1,   1,   1,   1, 0.96750,  11.6685
    14,'GOSHENJT    ',138.0000,1,   1,   1,   1, 0.98283,  11.8085
    15,'FTWAYNE     ',138.0000,2,   1,   1,   1, 0.96715,  11.5427
    16,'N_ E_       ',138.0000,1,   1,   1,   1, 0.98313,  12.2225
    17,'SORENSON    ',138.0000,1,   1,   1,   1, 0.99270,  14.0560
    18,'MCKINLEY    ',138.0000,2,   1,   1,   1, 0.96345,  11.9273
    19,'LINCOLN     ',138.0000,2,   1,   1,   1, 0.96006,  11.3656
    20,'ADAMS       ',138.0000,1,   1,   1,   1, 0.95567,  12.2323
    21,'JAY         ',138.0000,1,   1,   1,   1, 0.95695,  13.8134
    22,'RANDOLPH    ',138.0000,1,   1,   1,   1, 0.96881,  16.3593
    23,'COLLCRNR    ',138.0000,1,   1,   1,   1, 1.00016,  21.2575
    24,'TRENTON     ',138.0000,2,   1,   1,   1, 0.99200,  21.1301
    25,'TANNRSCK    ',138.0000,2,   1,   1,   1, 1.05000,  28.2076
    26,'TANNRSCK    ',138.0000,2,   1,   1,   1, 1.01500,  29.9945
    27,'MADISON     ',138.0000,2,   1,   1,   1, 0.96800,  15.6344
    28,'MULLIN      ',138.0000,1,   1,   1,   1, 0.96157,  13.9104
    29,'GRANT       ',138.0000,1,   1,   1,   1, 0.96322,  12.9187
    30,'SORENSON    ',138.0000,1,   1,   1,   1, 0.98487,  19.0821
    31,'DEERCRK     ',138.0000,2,   1,   1,   1, 0.96700,  13.0358
    32,'DELAWARE    ',138.0000,2,   1,   1,   1, 0.96704,  15.0260
    33,'HAVILAND    ',138.0000,1,   1,   1,   1, 0.97090,  10.9048
    34,'ROCKHILL    ',138.0000,2,   1,   1,   1, 0.98827,  11.5284
    35,'WESTLIMA    ',138.0000,1,   1,   1,   1, 0.98307,  11.1043
    36,'STERLING    ',138.0000,2,   1,   1,   1, 0.98250,  11.1071
    37,'EASTLIMA    ',138.0000,1,   1,   1,   1, 0.99385,  11.9991
    38,'EASTLIMA    ',138.0000,1,   1,   1,   1, 0.96272,  17.1227
    39,'NWLIBRTY    ',138.0000,1,   1,   1,   1, 0.97116,   8.6739
    40,'WEST END    ',138.0000,2,   1,   1,   1, 0.97000,   7.6233
    41,'S_TIFFIN    ',138.0000,1,   1,   1,   1, 0.96683,   7.1844
    42,'HOWARD      ',138.0000,2,   1,   1,   1, 0.98500,   8.7995
    43,'S_KENTON    ',138.0000,1,   1,   1,   1, 0.98019,  11.5242
    44,'WMVERNON    ',138.0000,1,   1,   1,   1, 0.98566,  14.0657
    45,'N_NEWARK    ',138.0000,1,   1,   1,   1, 0.98693,  15.9175
    46,'W_LANCST    ',138.0000,2,   1,   1,   1, 1.00500,  18.7340
    47,'CROOKSVL    ',138.0000,1,   1,   1,   1, 1.01711,  20.9497
    48,'ZANESVLL    ',138.0000,1,   1,   1,   1, 1.02063,  20.1945
    49,'PHILO       ',138.0000,2,   1,   1,   1, 1.02500,  21.2023
    50,'WCAMBRDG    ',138.0000,1,   1,   1,   1, 1.00155,  19.2469
    51,'NEWCMRST    ',138.0000,1,   1,   1,   1, 0.96760,  16.7324
    52,'SCOSHOCT    ',138.0000,1,   1,   1,   1, 0.95747,  15.8046
    53,'WOOSTER     ',138.0000,1,   1,   1,   1, 0.94628,  14.8964
    54,'TORREY      ',138.0000,2,   1,   1,   1, 0.95500,  15.8562
    55,'WAGENHLS    ',138.0000,2,   1,   1,   1, 0.95247,  15.5621
    56,'SUNNYSDE    ',138.0000,2,   1,   1,   1, 0.95537,  15.7884
    57,'WNWPHIL1    ',138.0000,1,   1,   1,   1, 0.97165,  16.8724
    58,'WNWPHIL2    ',138.0000,1,   1,   1,   1, 0.96006,  16.0354
    59,'TIDD        ',138.0000,2,   1,   1,   1, 0.98500,  19.1937
    60,'SWKAMMER    ',138.0000,1,   1,   1,   1, 0.99309,  23.1046
    61,'W_KAMMER    ',138.0000,2,   1,   1,   1, 0.99500,  23.9996
    62,'NATRIUM     ',138.0000,2,   1,   1,   1, 0.99772,  23.4140
    63,'TIDD        ',138.0000,1,   1,   1,   1, 0.96857,  22.6665
    64,'KAMMER      ',138.0000,1,   1,   1,   1, 0.98363,  24.4834
    65,'MUSKNGUM    ',138.0000,2,   1,   1,   1, 1.00500,  27.6973
    66,'MUSKNGUM    ',138.0000,2,   1,   1,   1, 1.05000,  27.6029
    67,'SUMMERFL    ',138.0000,1,   1,   1,   1, 1.01951,  24.9022
    68,'SPORN       ',138.0000,1,   1,   1,   1, 1.00325,  27.5854
    69,'SPORN       ',138.0000,3,   1,   1,   1, 1.03500,  30.0000
    70,'PORTSMTH    ',138.0000,2,   1,   1,   1, 0.98112,  22.6441
    71,'NPORTSMT    ',138.0000,1,   1,   1,   1, 0.98538,  22.2136
    72,'HILLSBRO    ',138.0000,2,   1,   1,   1, 0.98000,  21.1080
    73,'SARGENTS    ',138.0000,2,   1,   1,   1, 0.99100,  21.9856
    74,'BELLEFNT    ',138.0000,2,   1,   1,   1, 0.95788,  21.6435
    75,'STHPOINT    ',138.0000,1,   1,   1,   1, 0.96570,  22.9352
    76,'DARRAH      ',138.0000,2,   1,   1,   1, 0.93751,  21.8560
    77,'TURNER      ',138.0000,2,   1,   1,   1, 1.00377,  26.7854
    78,'CHEMICAL    ',138.0000,1,   1,   1,   1, 1.00143,  26.4745
    79,'CAPITLHL    ',138.0000,1,   1,   1,   1, 1.00773,  26.7656
    80,'CABINCRK    ',138.0000,2,   1,   1,   1, 1.04000,  28.9889
    81,'KANAWHA     ',138.0000,1,   1,   1,   1, 0.99681,  28.1367
    82,'LOGAN       ',138.0000,1,   1,   1,   1, 0.98871,  27.2732
    83,'SPRIGG      ',138.0000,1,   1,   1,   1, 0.98531,  28.4536
    84,'BETSYLNE    ',138.0000,1,   1,   1,   1, 0.98180,  30.9622
    85,'BEAVERCK    ',138.0000,2,   1,   1,   1, 0.98763,  32.5005
    86,'HAZARD      ',138.0000,1,   1,   1,   1, 0.98837,  31.1532
    87,'PINEVLLE    ',138.0000,2,   1,   1,   1, 1.01500,  31.4253
    88,'FREMONT     ',138.0000,1,   1,   1,   1, 0.98853,  35.6402
    89,'CLINCHRV    ',138.0000,2,   1,   1,   1, 1.00500,  39.7052
    90,'HOLSTON     ',138.0000,2,   1,   1,   1, 0.98500,  33.3117
    91,'HOLSTONT    ',138.0000,2,   1,   1,   1, 0.98000,  33.3333
    92,'SALTVLLE    ',138.0000,2,   1,   1,   1, 0.99333,  33.8171
    93,'TAZEWELL    ',138.0000,1,   1,   1,   1, 0.98758,  30.8191
    94,'SWITCHBK    ',138.0000,1,   1,   1,   1, 0.99090,  28.6741
    95,'CALDWELL    ',138.0000,1,   1,   1,   1, 0.98116,  27.7052
    96,'BAILEYSV    ',138.0000,1,   1,   1,   1, 0.99280,  27.5410
    97,'SUNDIAL     ',138.0000,1,   1,   1,   1, 1.01143,  27.9145
    98,'BRADLEY     ',138.0000,1,   1,   1,   1, 1.02351,  27.4365
    99,'HINTON      ',138.0000,2,   1,   1,   1, 1.01000,  27.0738
   100,'GLEN LYN    ',138.0000,2,   1,   1,   1, 1.01700,  28.0692
   101,'WYTHE       ',138.0000,1,   1,   1,   1, 0.99291,  29.6332
   102,'SMYTHE      ',138.0000,1,   1,   1,   1, 0.99187,  32.3202
   103,'CLAYTOR     ',138.0000,2,   1,   1,   1, 1.00060,  24.4761
   104,'HANCOCK     ',138.0000,2,   1,   1,   1, 0.97020,  21.7372
   105,'ROANOKE     ',138.0000,2,   1,   1,   1, 0.96709,  20.5859
   106,'CLOVERDL    ',138.0000,1,   1,   1,   1, 0.96251,  20.3463
   107,'REUSENS     ',138.0000,2,   1,   1,   1, 0.95200,  17.5708
   108,'BLAINE      ',138.0000,1,   1,   1,   1, 0.96703,  19.4113
   109,'FRANKLIN    ',138.0000,1,   1,   1,   1, 0.96731,  18.9680
   110,'FIELDALE    ',138.0000,2,   1,   1,   1, 0.97188,  18.1435
   111,'DANRIVER    ',138.0000,2,   1,   1,   1, 0.98000,  19.7714
   112,'DANVILLE    ',138.0000,2,   1,   1,   1, 0.97500,  15.0146
   113,'DEER CRK    ',138.0000,2,   1,   1,   1, 0.99300,  14.0145
   114,'WMEDFORD    ',138.0000,1,   1,   1,   1, 0.96245,  14.7209
   115,'MEDFORD     ',138.0000,1,   1,   1,   1, 0.96209,  14.7172
   116,'KYGERCRK    ',138.0000,2,   1,   1,   1, 1.00500,  27.1504
   117,'COREY       ',138.0000,1,   1,   1,   1, 0.97382,  10.9739
   118,'WHUNTNGD    ',138.0000,1,   1,   1,   1, 0.94597,  21.9688
0 / END OF BUS DATA, BEGIN LOAD DATA
     1,'1 ',1,   1,   1,     51.000,     27.000,      0.000,      0.000,      0.000,      0.000,   1,1
     2,'1 ',1,   1,   1,     20.000,      9.000,      0.000,      0.000,      0.000,      0.000,   1,1
     3,'1 ',1,   1,   1,     39.000,     10.000,      0.000,      0.000,      0.000,      0.000,   1,1
     4,'1 ',1,   1,   1,     30.000,     12.000,      0.000,      0.000,      0.000,      0.000,   1,1
     6,'1 ',1,   1,   1,     52.000,     22.000,      0.000,      0.000,      0.000,      0.000,   1,1
     7,'1 ',1,   1,   1,     19.000,      2.000,      0.000,      0.000,      0.000,      0.000,   1,1
    11,'1 ',1,   1,   1,     70.000,     23.000,      0.000,      0.000,      0.000,      0.000,   1,1
    12,'1 ',1,   1,   1,     47.000,     10.000,      0.000,      0.000,      0.000,      0.000,   1,1
    13,'1 ',1,   1,   1,     34.000,     16.000,      0.000,      0.000,      0.000,      0.000,   1,1
    14,'1 ',1,   1,   1,     14.000,      1.000,      0.000,      0.000,      0.000,      0.000,   1,1
    15,'1 ',1,   1,   1,     90.000,     30.000,      0.000,      0.000,      0.000,      0.000,   1,1
    16,'1 ',1,   1,   1,     25.000,     10.000,      0.000,      0.000,      0.000,      0.000,   1,1
    17,'1 ',1,   1,   1,     11.000,      3.000,      0.000,      0.000,      0.000,      0.000,   1,1
    18,'1 ',1,   1,   1,     60.000,     34.000,      0.000,      0.000,      0.000,      0.000,   1,1
    19,'1 ',1,   1,   1,     45.000,     25.000,      0.000,      0.000,      0.000,      0.000,   1,1
    20,'1 ',1,   1,   1,     18.000,      3.000,      0.000,      0.000,      0.000,      0.000,   1,1
    21,'1 ',1,   1,   1,     14.000,      8.000,      0.000,      0.000,      0.000,      0.000,   1,1
    22,'1 ',1,   1,   1,     10.000,      5.000,      0.000,      0.000,      0.000,      0.000,   1,1
    23,'1 ',1,   1,   1,      7.000,      3.000,      0.000,      0.000,      0.000,      0.000,   1,1
    27,'1 ',1,   1,   1,     62.000,     13.000,      0.000,      0.000,      0.000,      0.000,   1,1
    28,'1 ',1,   1,   1,     17.000,      7.000,      0.000,      0.000,      0.000,      0.000,   1,1
    29,'1 ',1,   1,   1,     24.000,      4.000,      0.000,      0.000,      0.000,      0.000,   1,1
    31,'1 ',1,   1,   1,     43.000,     27.000,      0.000,      0.000,      0.000,      0.000,   1,1
    32,'1 ',1,   1,   1,     59.000,     23.000,      0.000,      0.000,      0.000,      0.000,   1,1
    33,'1 ',1,   1,   1,     23.000,      9.000,      0.000,      0.000,      0.000,      0.000,   1,1
    34,'1 ',1,   1,   1,     59.000,     26.000,      0.000,      0.000,      0.000,      0.000,   1,1
    35,'1 ',1,   1,   1,     33.000,      9.000,      0.000,      0.000,      0.000,      0.000,   1,1
    36,'1 ',1,   1,   1,     31.000,     17.000,      0.000,      0.000,      0.000,      0.000,   1,1
    39,'1 ',1,   1,   1,     27.000,     11.000,      0.000,      0.000,      0.000,      0.000,   1,1
    40,'1 ',1,   1,   1,     20.000,     23.000,      0.000,      0.000,      0.000,      0.000,   1,1
    41,'1 ',1,   1,   1,     37.000,     10.000,      0.000,      0.000,      0.000,      0.000,   1,1
    42,'1 ',1,   1,   1,     37.000,     23.000,      0.000,      0.000,      0.000,      0.000,   1,1
    43,'1 ',1,   1,   1,     18.000,      7.000,      0.000,      0.000,      0.000,      0.000,   1,1
    44,'1 ',1,   1,   1,     16.000,      8.000,      0.000,      0.000,      0.000,      0.000,   1,1
    45,'1 ',1,   1,   1,     53.000,     22.000,      0.000,      0.000,      0.000,      0.000,   1,1
    46,'1 ',1,   1,   1,     28.000,     10.000,      0.000,      0.000,      0.000,      0.000,   1,1
    47,'1 ',1,   1,   1,     34.000,      0.000,      0.000,      0.000,      0.000,      0.000,   1,1
    48,'1 ',1,   1,   1,     20.000,     11.000,      0.000,      0.000,      0.000,      0.000,   1,1
    49,'1 ',1,   1,   1,     87.000,     30.000,      0.000,      0.000,      0.000,      0.000,   1,1
    50,'1 ',1,   1,   1,     17.000,      4.000,      0.000,      0.000,      0.000,      0.000,   1,1
    51,'1 ',1,   1,   1,     17.000,      8.000,      0.000,      0.000,      0.000,      0.000,   1,1
    52,'1 ',1,   1,   1,     18.000,      5.000,      0.000,      0.000,      0.000,      0.000,   1,1
    53,'1 ',1,   1,   1,     23.000,     11.000,      0.000,      0.000,      0.000,      0.000,   1,1
    54,'1 ',1,   1,   1,    113.000,     32.000,      0.000,      0.000,      0.000,      0.000,   1,1
    55,'1 ',1,   1,   1,     63.000,     22.000,      0.000,      0.000,      0.000,      0.000,   1,1
    56,'1 ',1,   1,   1,     84.000,     18.000,      0.000,      0.000,      0.000,      0.000,   1,1
    57,'1 ',1,   1,   1,     12.000,      3.000,      0.000,      0.000,      0.000,      0.000,   1,1
    58,'1 ',1,   1,   1,     12.000,      3.000,      0.000,      0.000,      0.000,      0.000,   1,1
    59,'1 ',1,   1,   1,    277.000,    113.000,      0.000,      0.000,      0.000,      0.000,   1,1
    60,'1 ',1,   1,   1,     78.000,      3.000,      0.000,      0.000,      0.000,      0.000,   1,1
    62,'1 ',1,   1,   1,     77.000,     14.000,      0.000,      0.000,      0.000,      0.000,   1,1
    66,'1 ',1,   1,   1,     39.000,     18.000,      0.000,      0.000,      0.000,      0.000,   1,1
    67,'1 ',1,   1,   1,     28.000,      7.000,      0.000,      0.000,      0.000,      0.000,   1,1
    70,'1 ',1,   1,   1,     66.000,     20.000,      0.000,      0.000,      0.000,      0.000,   1,1
    74,'1 ',1,   1,   1,     68.000,     27.000,      0.000,      0.000,      0.000,      0.000,   1,1
    75,'1 ',1,   1,   1,     47.000,     11.000,      0.000,      0.000,      0.000,      0.000,   1,1
    76,'1 ',1,   1,   1,     68.000,     36.000,      0.000,      0.000,      0.000,      0.000,   1,1
    77,'1 ',1,   1,   1,     61.000,     28.000,      0.000,      0.000,      0.000,      0.000,   1,1
    78,'1 ',1,   1,   1,     71.000,     26.000,      0.000,      0.000,      0.000,      0.000,   1,1
    79,'1 ',1,   1,   1,     39.000,     32.000,      0.000,      0.000,      0.000,      0.000,   1,1
    80,'1 ',1,   1,   1,    130.000,     26.000,      0.000,      0.000,      0.000,      0.000,   1,1
    82,'1 ',1,   1,   1,     54.000,     27.000,      0.000,      0.000,      0.000,      0.000,   1,1
    83,'1 ',1,   1,   1,     20.000,     10.000,      0.000,      0.000,      0.000,      0.000,   1,1
    84,'1 ',1,   1,   1,     11.000,      7.000,      0.000,      0.000,      0.000,      0.000,   1,1
    85,'1 ',1,   1,   1,     24.000,     15.000,      0.000,      0.000,      0.000,      0.000,   1,1
    86,'1 ',1,   1,   1,     21.000,     10.000,      0.000,      0.000,      0.000,      0.000,   1,1
    88,'1 ',1,   1,   1,     48.000,     10.000,      0.000,      0.000,      0.000,      0.000,   1,1
    90,'1 ',1,   1,   1,     78.000,     42.000,      0.000,      0.000,      0.000,      0.000,   1,1
    92,'1 ',1,   1,   1,     65.000,     10.000,      0.000,      0.000,      0.000,      0.000,   1,1
    93,'1 ',1,   1,   1,     12.000,      7.000,      0.000,      0.000,      0.000,      0.000,   1,1
    94,'1 ',1,   1,   1,     30.000,     16.000,      0.000,      0.000,      0.000,      0.000,   1,1
    95,'1 ',1,   1,   1,     42.000,     31.000,      0.000,      0.000,      0.000,      0.000,   1,1
    96,'1 ',1,   1,   1,     38.000,     15.000,      0.000,      0.000,      0.000,      0.000,   1,1
    97,'1 ',1,   1,   1,     15.000,      9.000,      0.000,      0.000,      0.000,      0.000,   1,1
    98,'1 ',1,   1,   1,     34.000,      8.000,      0.000,      0.000,      0.000,      0.000,   1,1
   100,'1 ',1,   1,   1,     37.000,     18.000,      0.000,      0.000,      0.000,      0.000,   1,1
   101,'1 ',1,   1,   1,     22.000,     15.000,      0.000,      0.000,      0.000,      0.000,   1,1
   102,'1 ',1,   1,   1,      5.000,      3.000,      0.000,      0.000,      0.000,      0.000,   1,1
   103,'1 ',1,   1,   1,     23.000,     16.000,      0.000,      0.000,      0.000,      0.000,   1,1
   104,'1 ',1,   1,   1,     38.000,     25.000,      0.000,      0.000,      0.000,      0.000,   1,1
   105,'1 ',1,   1,   1,     31.000,     26.000,      0.000,      0.000,      0.000,      0.000,   1,1
   106,'1 ',1,   1,   1,     43.000,     16.000,      0.000,      0.000,      0.000,      0.000,   1,1
   107,'1 ',1,   1,   1,     28.000,     12.000,      0.000,      0.000,      0.000,      0.000,   1,1
   108,'1 ',1,   1,   1,      2.000,      1.000,      0.000,      0.000,      0.000,      0.000,   1,1
   109,'1 ',1,   1,   1,      8.000,      3.000,      0.000,      0.000,      0.000,      0.000,   1,1
   110,'1 ',1,   1,   1,     39.000,     30.000,      0.000,      0.000,      0.000,      0.000,   1,1
   112,'1 ',1,   1,   1,     25.000,     13.000,      0.000,      0.000,      0.000,      0.000,   1,1
   114,'1 ',1,   1,   1,      8.000,      3.000,      0.000,      0.000,      0.000,      0.000,   1,1
   115,'1 ',1,   1,   1,     22.000,      7.000,      0.000,      0.000,      0.000,      0.000,   1,1
   117,'1 ',1,   1,   1,     20.000,      8.000,      0.000,      0.000,      0.000,      0.000,   1,1
   118,'1 ',1,   1,   1,     33.000,     15.000,      0.000,      0.000,      0.000,      0.000,   1,1
0 / END OF LOAD DATA, BEGIN FIXED SHUNT DATA
     5,'1 ',1,      0.000,    -40.000
    34,'1 ',1,      0.000,     14.000
    37,'1 ',1,      0.000,    -25.000
    44,'1 ',1,      0.000,     10.000
    45,'1 ',1,      0.000,     10.000
    46,'1 ',1,      0.000,     10.000
    48,'1 ',1,      0.000,     15.000
    74,'1 ',1,      0.000,     12.000
    79,'1 ',1,      0.000,     20.000
    82,'1 ',1,      0.000,     20.000
    83,'1 ',1,      0.000,     10.000
   105,'1 ',1,      0.000,     20.000
   107,'1 ',1,      0.000,      6.000
   110,'1 ',1,      0.000,      6.000
0 / END OF FIXED SHUNT DATA, BEGIN GENERATOR DATA
     1,'1 ',     0.000,     0.000,    15.000,    -5.000,0.95500,     0,   100.000,   0.00000,   0.20000,   0.00000,   0.00000,   1.00000,0,  100.0,     0.000,     0.000
     4,'1 ',    -9.000,   -10.083,   300.000,  -300.000,0.99800,     0,   100.000,   0.00000,   0.20000,   0.00000,   0.00000,   1.00000,1,  100.0,    -9.000,     0.000
     6,'1 ',     0.000,     0.000,    50.000,   -13.000,0.99000,     0,   100.000,   0.00000,   0.20000,   0.00000,   0.00000,   1.00000,0,  100.0,     0.000,     0.000
     8,'1 ',   -28.000,    65.533,   300.000,  -300.000,1.01500,     0,   100.000,   0.00000,   0.20000,   0.00000,   0.00000,   1.00000,1,  100.0,   -28.000,     0.000
    10,'1 ',   450.000,   -51.042,   200.000,  -147.000,1.05000,     0,   100.000,   0.00000,   0.20000,   0.00000,   0.00000,   1.00000,1,  100.0,   450.000,     0.000
    12,'1 ',    85.000,   100.603,   120.000,   -35.000,0.99000,     0,   100.000,   0.00000,   0.20000,   0.00000,   0.00000,   1.00000,1,  100.0,    85.000,     0.000
    15,'1 ',     0.000,     0.000,    30.000,   -10.000,0.97000,     0,   100.000,   0.00000,   0.20000,   0.00000,   0.00000,   1.00000,0,  100.0,     0.000,     0.000
    18,'1 ',     0.000,     0.000,    50.000,   -16.000,0.97300,     0,   100.000,   0.00000,   0.20000,   0.00000,   0.00000,   1.00000,0,  100.0,     0.000,     0.000
    19,'1 ',     0.000,     0.000,    24.000,    -8.000,0.96200,     0,   100.000,   0.00000,   0.20000,   0.00000,   0.00000,   1.00000,0,  100.0,     0.000,     0.000
    24,'1 ',   -13.000,   -15.603,   300.000,  -300.000,0.99200,     0,   100.000,   0.00000,   0.20000,   0.00000,   0.00000,   1.00000,1,  100.0,   -13.000,     0.000
    25,'1 ',   220.000,    49.138,   140.000,   -47.000,1.05000,     0,   100.000,   0.00000,   0.20000,   0.00000,   0.00000,   1.00000,1,  100.0,   220.000,     0.000
    26,'1 ',   314.000,    10.650,  1000.000, -1000.000,1.01500,     0,   100.000,   0.00000,   0.20000,   0.00000,   0.00000,   1.00000,1,  100.0,   314.000,     0.000
    27,'1 ',    -9.000,    -3.873,   300.000,  -300.000,0.96800,     0,   100.000,   0.00000,   0.20000,   0.00000,   0.00000,   1.00000,1,  100.0,    -9.000,     0.000
    31,'1 ',     7.000,    30.065,   300.000,  -300.000,0.96700,     0,   100.000,   0.00000,   0.20000,   0.00000,   0.00000,   1.00000,1,  100.0,     7.000,     0.000
    32,'1 ',     0.000,     0.000,    42.000,   -14.000,0.96300,     0,   100.000,   0.00000,   0.20000,   0.00000,   0.00000,   1.00000,0,  100.0,     0.000,     0.000
    34,'1 ',     0.000,     0.000,    24.000,    -8.000,0.98400,     0,   100.000,   0.00000,   0.20000,   0.00000,   0.00000,   1.00000,0,  100.0,     0.000,     0.000
    36,'1 ',     0.000,     0.000,    24.000,    -8.000,0.98000,     0,   100.000,   0.00000,   0.20000,   0.00000,   0.00000,   1.00000,0,  100.0,     0.000,     0.000
    40,'1 ',   -46.000,    24.615,   300.000,  -300.000,0.97000,     0,   100.000,   0.00000,   0.20000,   0.00000,   0.00000,   1.00000,1,  100.0,   -46.000,     0.000
    42,'1 ',   -59.000,    41.133,   300.000,  -300.000,0.98500,     0,   100.000,   0.00000,   0.20000,   0.00000,   0.00000,   1.00000,1,  100.0,   -59.000,     0.000
    46,'1 ',    19.000,    -5.466,   100.000,  -100.000,1.00500,     0,   100.000,   0.00000,   0.20000,   0.00000,   0.00000,   1.00000,1,  100.0,    19.000,     0.000
    49,'1 ',   204.000,   113.740,   210.000,   -85.000,1.02500,     0,   100.000,   0.00000,   0.20000,   0.00000,   0.00000,   1.00000,1,  100.0,   204.000,     0.000
    54,'1 ',    48.000,   -11.132,   300.000,  -300.000,0.95500,     0,   100.000,   0.00000,   0.20000,   0.00000,   0.00000,   1.00000,1,  100.0,    48.000,     0.000
    55,'1 ',     0.000,     0.000,    23.000,    -8.000,0.95200,     0,   100.000,   0.00000,   0.20000,   0.00000,   0.00000,   1.00000,0,  100.0,     0.000,     0.000
    56,'1 ',     0.000,     0.000,    15.000,    -8.000,0.95400,     0,   100.000,   0.00000,   0.20000,   0.00000,   0.00000,   1.00000,0,  100.0,     0.000,     0.000
    59,'1 ',   155.000,    88.118,   180.000,   -60.000,0.98500,     0,   100.000,   0.00000,   0.20000,   0.00000,   0.00000,   1.00000,1,  100.0,   155.000,     0.000
    61,'1 ',   160.000,   -38.794,   300.000,  -100.000,0.99500,     0,   100.000,   0.00000,   0.20000,   0.00000,   0.00000,   1.00000,1,  100.0,   160.000,     0.000
    62,'1 ',     0.000,     0.000,    20.000,   -20.000,0.99800,     0,   100.000,   0.00000,   0.20000,   0.00000,   0.00000,   1.00000,0,  100.0,     0.000,     0.000
    65,'1 ',   391.000,    80.281,   200.000,   -67.000,1.00500,     0,   100.000,   0.00000,   0.20000,   0.00000,   0.00000,   1.00000,1,  100.0,   391.000,     0.000
    66,'1 ',   392.000,    -1.529,   200.000,   -67.000,1.05000,     0,   100.000,   0.00000,   0.20000,   0.00000,   0.00000,   1.00000,1,  100.0,   392.000,     0.000
    69,'1 ',   512.605,   -76.270,   300.000,  -300.000,1.03500,     0,   100.000,   0.00000,   0.20000,   0.00000,   0.00000,   1.00000,1,  100.0,   516.400,     0.000
    70,'1 ',     0.000,     0.000,    32.000,   -10.000,0.98400,     0,   100.000,   0.00000,   0.20000,   0.00000,   0.00000,   1.00000,0,  100.0,     0.000,     0.000
    72,'1 ',   -12.000,   -10.334,   100.000,  -100.000,0.98000,     0,   100.000,   0.00000,   0.20000,   0.00000,   0.00000,   1.00000,1,  100.0,   -12.000,     0.000
    73,'1 ',    -6.000,    12.840,   100.000,  -100.000,0.99100,     0,   100.000,   0.00000,   0.20000,   0.00000,   0.00000,   1.00000,1,  100.0,    -6.000,     0.000
    74,'1 ',     0.000,     0.000,     9.000,    -6.000,0.95800,     0,   100.000,   0.00000,   0.20000,   0.00000,   0.00000,   1.00000,0,  100.0,     0.000,     0.000
    76,'1 ',     0.000,     0.000,    23.000,    -8.000,0.94300,     0,   100.000,   0.00000,   0.20000,   0.00000,   0.00000,   1.00000,0,  100.0,     0.000,     0.000
    77,'1 ',     0.000,     0.000,    70.000,   -20.000,1.00600,     0,   100.000,   0.00000,   0.20000,   0.00000,   0.00000,   1.00000,0,  100.0,     0.000,     0.000
    80,'1 ',   477.000,   114.394,   280.000,  -165.000,1.04000,     0,   100.000,   0.00000,   0.20000,   0.00000,   0.00000,   1.00000,1,  100.0,   477.000,     0.000
    85,'1 ',     0.000,     0.000,    23.000,    -8.000,0.98500,     0,   100.000,   0.00000,   0.20000,   0.00000,   0.00000,   1.00000,0,  100.0,     0.000,     0.000
    87,'1 ',     4.000,    10.200,  1000.000,  -100.000,1.01500,     0,   100.000,   0.00000,   0.20000,   0.00000,   0.00000,   1.00000,1,  100.0,     4.000,     0.000
    89,'1 ',   607.000,   -16.762,   300.000,  -210.000,1.00500,     0,   100.000,   0.00000,   0.20000,   0.00000,   0.00000,   1.00000,1,  100.0,   607.000,     0.000
    90,'1 ',   -85.000,    59.082,   300.000,  -300.000,0.98500,     0,   100.000,   0.00000,   0.20000,   0.00000,   0.00000,   1.00000,1,  100.0,   -85.000,     0.000
    91,'1 ',   -10.000,   -15.660,   100.000,  -100.000,0.98000,     0,   100.000,   0.00000,   0.20000,   0.00000,   0.00000,   1.00000,1,  100.0,   -10.000,     0.000
    92,'1 ',     0.000,     0.000,     9.000,    -3.000,0.99000,     0,   100.000,   0.00000,   0.20000,   0.00000,   0.00000,   1.00000,0,  100.0,     0.000,     0.000
    99,'1 ',   -42.000,   -17.537,   100.000,  -100.000,1.01000,     0,   100.000,   0.00000,   0.20000,   0.00000,   0.00000,   1.00000,1,  100.0,   -42.000,     0.000
   100,'1 ',   252.000,   107.499,   155.000,   -50.000,1.01700,     0,   100.000,   0.00000,   0.20000,   0.00000,   0.00000,   1.00000,1,  100.0,   252.000,     0.000
   103,'1 ',    40.000,    40.000,    40.000,   -15.000,1.01000,     0,   100.000,   0.00000,   0.20000,   0.00000,   0.00000,   1.00000,1,  100.0,    40.000,     0.000
   104,'1 ',     0.000,     0.000,    23.000,    -8.000,0.97100,     0,   100.000,   0.00000,   0.20000,   0.00000,   0.00000,   1.00000,0,  100.0,     0.000,     0.000
   105,'1 ',     0.000,     0.000,    23.000,    -8.000,0.96500,     0,   100.000,   0.00000,   0.20000,   0.00000,   0.00000,   1.00000,0,  100.0,     0.000,     0.000
   107,'1 ',   -22.000,     4.731,   200.000,  -200.000,0.95200,     0,   100.000,   0.00000,   0.20000,   0.00000,   0.00000,   1.00000,1,  100.0,   -22.000,     0.000
   110,'1 ',     0.000,     0.000,    23.000,    -8.000,0.97300,     0,   100.000,   0.00000,   0.20000,   0.00000,   0.00000,   1.00000,0,  100.0,     0.000,     0.000
   111,'1 ',    36.000,    -0.399,  1000.000,  -100.000,0.98000,     0,   100.000,   0.00000,   0.20000,   0.00000,   0.00000,   1.00000,1,  100.0,    36.000,     0.000
   112,'1 ',   -43.000,    43.260,  1000.000,  -100.000,0.97500,     0,   100.000,   0.00000,   0.20000,   0.00000,   0.00000,   1.00000,1,  100.0,   -43.000,     0.000
   113,'1 ',    -6.000,    12.657,   200.000,  -100.000,0.99300,     0,   100.000,   0.00000,   0.20000,   0.00000,   0.00000,   1.00000,1,  100.0,    -6.000,     0.000
   116,'1 ',  -184.000,    51.293,  1000.000, -1000.000,1.00500,     0,   100.000,   0.00000,   0.20000,   0.00000,   0.00000,   1.00000,1,  100.0,  -184.000,     0.000
0 / END OF GENERATOR DATA, BEGIN BRANCH DATA
      1,      2,'1 ',  0.03030,  0.09990,  0.02540, 100.00, 110.00,   0.00,0.00000,000.000, 0.00000, 0.00000, 0.00000, 0.00000, 1
      1,      3,'1 ',  0.01290,  0.04240,  0.01082, 100.00, 110.00,   0.00,0.00000,000.000, 0.00000, 0.00000, 0.00000, 0.00000, 1
      2,     12,'1 ',  0.01870,  0.06160,  0.01572, 100.00, 110.00,   0.00,0.00000,000.000, 0.00000, 0.00000, 0.00000, 0.00000, 1
      3,      5,'1 ',  0.02410,  0.10800,  0.02840, 100.00, 110.00,   0.00,0.00000,000.000, 0.00000, 0.00000, 0.00000, 0.00000, 1
      3,     12,'1 ',  0.04840,  0.16000,  0.04060, 100.00, 110.00,   0.00,0.00000,000.000, 0.00000, 0.00000, 0.00000, 0.00000, 1
      4,      5,'1 ',  0.00176,  0.00798,  0.00210, 120.00, 110.00,   0.00,0.00000,000.000, 0.00000, 0.00000, 0.00000, 0.00000, 1
      4,     11,'1 ',  0.02090,  0.06880,  0.01748, 100.00, 110.00,   0.00,0.00000,000.000, 0.00000, 0.00000, 0.00000, 0.00000, 1
      5,      6,'1 ',  0.01190,  0.05400,  0.01426, 100.00, 110.00,   0.00,0.00000,000.000, 0.00000, 0.00000, 0.00000, 0.00000, 1
      8,      5,'1 ',  0.00000,  0.02670,  0.00000, 100.00, 110.00,   0.00,0.98500,  0.000, 0.00000, 0.00000,00.00000,00.00000, 1
      5,     11,'1 ',  0.02030,  0.06820,  0.01738, 100.00, 110.00,   0.00,0.00000,000.000, 0.00000, 0.00000, 0.00000, 0.00000, 1
      6,      7,'1 ',  0.00459,  0.02080,  0.00550, 100.00, 110.00,   0.00,0.00000,000.000, 0.00000, 0.00000, 0.00000, 0.00000, 1
      7,     12,'1 ',  0.00862,  0.03400,  0.00874, 500.00, 110.00,   0.00,0.00000,000.000, 0.00000, 0.00000, 0.00000, 0.00000, 1
      8,      9,'1 ',  0.00244,  0.03050,  1.16200, 100.00, 110.00,   0.00,0.00000,000.000, 0.00000, 0.00000, 0.00000, 0.00000, 1
      8,     30,'1 ',  0.00431,  0.05040,  0.51400, 500.00, 110.00,   0.00,0.00000,000.000, 0.00000, 0.00000, 0.00000, 0.00000, 1
      9,     10,'1 ',  0.00258,  0.03220,  1.23000, 100.00, 110.00,   0.00,0.00000,000.000, 0.00000, 0.00000, 0.00000, 0.00000, 1
     11,     12,'1 ',  0.00595,  0.01960,  0.00502, 100.00, 110.00,   0.00,0.00000,000.000, 0.00000, 0.00000, 0.00000, 0.00000, 1
     11,     13,'1 ',  0.02225,  0.07310,  0.01876, 100.00, 110.00,   0.00,0.00000,000.000, 0.00000, 0.00000, 0.00000, 0.00000, 1
     12,     14,'1 ',  0.02150,  0.07070,  0.01816, 100.00, 110.00,   0.00,0.00000,000.000, 0.00000, 0.00000, 0.00000, 0.00000, 1
     12,     16,'1 ',  0.02120,  0.08340,  0.02140, 100.00, 110.00,   0.00,0.00000,000.000, 0.00000, 0.00000, 0.00000, 0.00000, 1
     12,    117,'1 ',  0.03290,  0.14000,  0.03580, 100.00, 110.00,   0.00,0.00000,000.000, 0.00000, 0.00000, 0.00000, 0.00000, 1
     13,     15,'1 ',  0.07440,  0.24440,  0.06268, 100.00, 110.00,   0.00,0.00000,000.000, 0.00000, 0.00000, 0.00000, 0.00000, 1
     14,     15,'1 ',  0.05950,  0.19500,  0.05020, 100.00, 110.00,   0.00,0.00000,000.000, 0.00000, 0.00000, 0.00000, 0.00000, 1
     15,     17,'1 ',  0.01320,  0.04370,  0.04440, 100.00, 110.00,   0.00,0.00000,000.000, 0.00000, 0.00000, 0.00000, 0.00000, 1
     15,     19,'1 ',  0.01200,  0.03940,  0.01010, 100.00, 110.00,   0.00,0.00000,000.000, 0.00000, 0.00000, 0.00000, 0.00000, 1
     15,     33,'1 ',  0.03800,  0.12440,  0.03194, 100.00, 110.00,   0.00,0.00000,000.000, 0.00000, 0.00000, 0.00000, 0.00000, 1
     16,     17,'1 ',  0.04540,  0.18010,  0.04660, 100.00, 110.00,   0.00,0.00000,000.000, 0.00000, 0.00000, 0.00000, 0.00000, 1
     17,     18,'1 ',  0.01230,  0.05050,  0.01298, 100.00, 110.00,   0.00,0.00000,000.000, 0.00000, 0.00000, 0.00000, 0.00000, 1
     30,     17,'1 ',  0.00000,  0.03880,  0.00000, 100.00, 110.00,   0.00,0.96000,  0.000, 0.00000, 0.00000,00.00000,00.00000, 1
     17,     31,'1 ',  0.04740,  0.15630,  0.03990, 100.00, 110.00,   0.00,0.00000,000.000, 0.00000, 0.00000, 0.00000, 0.00000, 1
     17,    113,'1 ',  0.00913,  0.03010,  0.00768, 100.00, 110.00,   0.00,0.00000,000.000, 0.00000, 0.00000, 0.00000, 0.00000, 1
     18,     19,'1 ',  0.01119,  0.04930,  0.01142, 100.00, 110.00,   0.00,0.00000,000.000, 0.00000, 0.00000, 0.00000, 0.00000, 1
     19,     20,'1 ',  0.02520,  0.11700,  0.02980, 100.00, 110.00,   0.00,0.00000,000.000, 0.00000, 0.00000, 0.00000, 0.00000, 1
     19,     34,'1 ',  0.07520,  0.24700,  0.06320, 100.00, 110.00,   0.00,0.00000,000.000, 0.00000, 0.00000, 0.00000, 0.00000, 1
     20,     21,'1 ',  0.01830,  0.08490,  0.02160, 100.00, 110.00,   0.00,0.00000,000.000, 0.00000, 0.00000, 0.00000, 0.00000, 1
     21,     22,'1 ',  0.02090,  0.09700,  0.02460, 100.00, 110.00,   0.00,0.00000,000.000, 0.00000, 0.00000, 0.00000, 0.00000, 1
     22,     23,'1 ',  0.03420,  0.15900,  0.04040, 175.00, 110.00,   0.00,0.00000,000.000, 0.00000, 0.00000, 0.00000, 0.00000, 1
     23,     24,'1 ',  0.01350,  0.04920,  0.04980, 100.00, 110.00,   0.00,0.00000,000.000, 0.00000, 0.00000, 0.00000, 0.00000, 1
     23,     25,'1 ',  0.01560,  0.08000,  0.08640, 100.00, 110.00,   0.00,0.00000,000.000, 0.00000, 0.00000, 0.00000, 0.00000, 1
     23,     32,'1 ',  0.03170,  0.11530,  0.11730, 100.00, 110.00,   0.00,0.00000,000.000, 0.00000, 0.00000, 0.00000, 0.00000, 1
     24,     70,'1 ',  0.00221,  0.41150,  0.10198, 160.00, 110.00,   0.00,0.00000,000.000, 0.00000, 0.00000, 0.00000, 0.00000, 1
     24,     72,'1 ',  0.04880,  0.19600,  0.04880, 230.00, 110.00,   0.00,0.00000,000.000, 0.00000, 0.00000, 0.00000, 0.00000, 1
     26,     25,'1 ',  0.00000,  0.03820,  0.00000, 100.00, 110.00,   0.00,0.96000,  0.000, 0.00000, 0.00000,00.00000,00.00000, 1
     25,     27,'1 ',  0.03180,  0.16300,  0.17640, 100.00, 110.00,   0.00,0.00000,000.000, 0.00000, 0.00000, 0.00000, 0.00000, 1
     26,     30,'1 ',  0.00799,  0.08600,  0.90800, 100.00, 110.00,   0.00,0.00000,000.000, 0.00000, 0.00000, 0.00000, 0.00000, 1
     27,     28,'1 ',  0.01913,  0.08550,  0.02160, 100.00, 110.00,   0.00,0.00000,000.000, 0.00000, 0.00000, 0.00000, 0.00000, 1
     27,     32,'1 ',  0.02290,  0.07550,  0.01926, 100.00, 110.00,   0.00,0.00000,000.000, 0.00000, 0.00000, 0.00000, 0.00000, 1
     27,    115,'1 ',  0.01640,  0.07410,  0.01972, 100.00, 110.00,   0.00,0.00000,000.000, 0.00000, 0.00000, 0.00000, 0.00000, 1
     28,     29,'1 ',  0.02370,  0.09430,  0.02380, 100.00, 110.00,   0.00,0.00000,000.000, 0.00000, 0.00000, 0.00000, 0.00000, 1
     29,     31,'1 ',  0.01080,  0.03310,  0.00830, 100.00, 110.00,   0.00,0.00000,000.000, 0.00000, 0.00000, 0.00000, 0.00000, 1
     30,     38,'1 ',  0.00464,  0.05400,  0.42200, 100.00, 110.00,   0.00,0.00000,000.000, 0.00000, 0.00000, 0.00000, 0.00000, 1
     31,     32,'1 ',  0.02980,  0.09850,  0.02510, 100.00, 110.00,   0.00,0.00000,000.000, 0.00000, 0.00000, 0.00000, 0.00000, 1
     32,    113,'1 ',  0.06150,  0.20300,  0.05180, 110.00, 110.00,   0.00,0.00000,000.000, 0.00000, 0.00000, 0.00000, 0.00000, 1
     32,    114,'1 ',  0.01350,  0.06120,  0.01628, 110.00, 110.00,   0.00,0.00000,000.000, 0.00000, 0.00000, 0.00000, 0.00000, 1
     33,     37,'1 ',  0.04150,  0.14200,  0.03660, 100.00, 110.00,   0.00,0.00000,000.000, 0.00000, 0.00000, 0.00000, 0.00000, 1
     34,     36,'1 ',  0.00871,  0.02680,  0.00568, 100.00, 110.00,   0.00,0.00000,000.000, 0.00000, 0.00000, 0.00000, 0.00000, 1
     34,     37,'1 ',  0.00256,  0.00940,  0.00984, 100.00, 110.00,   0.00,0.00000,000.000, 0.00000, 0.00000, 0.00000, 0.00000, 1
     34,     43,'1 ',  0.04130,  0.16810,  0.04226, 100.00, 110.00,   0.00,0.00000,000.000, 0.00000, 0.00000, 0.00000, 0.00000, 1
     35,     36,'1 ',  0.00224,  0.01020,  0.00268, 100.00, 110.00,   0.00,0.00000,000.000, 0.00000, 0.00000, 0.00000, 0.00000, 1
     35,     37,'1 ',  0.01100,  0.04970,  0.01318, 200.00, 110.00,   0.00,0.00000,000.000, 0.00000, 0.00000, 0.00000, 0.00000, 1
     38,     37,'1 ',  0.00000,  0.03750,  0.00000, 100.00, 110.00,   0.00,0.93500,  0.000, 0.00000, 0.00000,00.00000,00.00000, 1
     37,     39,'1 ',  0.03210,  0.10600,  0.02700, 100.00, 110.00,   0.00,0.00000,000.000, 0.00000, 0.00000, 0.00000, 0.00000, 1
     37,     40,'1 ',  0.05930,  0.16800,  0.04200, 100.00, 110.00,   0.00,0.00000,000.000, 0.00000, 0.00000, 0.00000, 0.00000, 1
     38,     65,'1 ',  0.00901,  0.09860,  1.04600, 100.00, 110.00,   0.00,0.00000,000.000, 0.00000, 0.00000, 0.00000, 0.00000, 1
     39,     40,'1 ',  0.01840,  0.06050,  0.01552, 140.00, 110.00,   0.00,0.00000,000.000, 0.00000, 0.00000, 0.00000, 0.00000, 1
     40,     41,'1 ',  0.01450,  0.04870,  0.01222, 100.00, 110.00,   0.00,0.00000,000.000, 0.00000, 0.00000, 0.00000, 0.00000, 1
     40,     42,'1 ',  0.05550,  0.18300,  0.04660, 100.00, 110.00,   0.00,0.00000,000.000, 0.00000, 0.00000, 0.00000, 0.00000, 1
     41,     42,'1 ',  0.04100,  0.13500,  0.03440, 100.00, 110.00,   0.00,0.00000,000.000, 0.00000, 0.00000, 0.00000, 0.00000, 1
     42,     49,'1 ',  0.03580,  0.16150,  0.17200, 100.00, 110.00,   0.00,0.00000,000.000, 0.00000, 0.00000, 0.00000, 0.00000, 1
     43,     44,'1 ',  0.06080,  0.24540,  0.06068, 100.00, 110.00,   0.00,0.00000,000.000, 0.00000, 0.00000, 0.00000, 0.00000, 1
     44,     45,'1 ',  0.02240,  0.09010,  0.02240, 100.00, 110.00,   0.00,0.00000,000.000, 0.00000, 0.00000, 0.00000, 0.00000, 1
     45,     46,'1 ',  0.04000,  0.13560,  0.03320, 100.00, 110.00,   0.00,0.00000,000.000, 0.00000, 0.00000, 0.00000, 0.00000, 1
     45,     49,'1 ',  0.06840,  0.18600,  0.04440, 100.00, 110.00,   0.00,0.00000,000.000, 0.00000, 0.00000, 0.00000, 0.00000, 1
     46,     47,'1 ',  0.03800,  0.12700,  0.03160, 100.00, 110.00,   0.00,0.00000,000.000, 0.00000, 0.00000, 0.00000, 0.00000, 1
     46,     48,'1 ',  0.06010,  0.18900,  0.04720, 100.00, 110.00,   0.00,0.00000,000.000, 0.00000, 0.00000, 0.00000, 0.00000, 1
     47,     49,'1 ',  0.01910,  0.06250,  0.01604, 100.00, 110.00,   0.00,0.00000,000.000, 0.00000, 0.00000, 0.00000, 0.00000, 1
     47,     69,'1 ',  0.08440,  0.27780,  0.07092, 100.00, 110.00,   0.00,0.00000,000.000, 0.00000, 0.00000, 0.00000, 0.00000, 1
     48,     49,'1 ',  0.01790,  0.05050,  0.01258, 275.00, 110.00,   0.00,0.00000,000.000, 0.00000, 0.00000, 0.00000, 0.00000, 1
     49,     50,'1 ',  0.02670,  0.07520,  0.01874, 100.00, 110.00,   0.00,0.00000,000.000, 0.00000, 0.00000, 0.00000, 0.00000, 1
     49,     51,'1 ',  0.04860,  0.13700,  0.03420, 100.00, 110.00,   0.00,0.00000,000.000, 0.00000, 0.00000, 0.00000, 0.00000, 1
     49,     54,'1 ',  0.03970,  0.14500,  0.14760, 100.00, 110.00,   0.00,0.00000,000.000, 0.00000, 0.00000, 0.00000, 0.00000, 1
     49,     66,'1 ',  0.00900,  0.04600,  0.04960, 100.00, 110.00,   0.00,0.00000,000.000, 0.00000, 0.00000, 0.00000, 0.00000, 1
     49,     69,'1 ',  0.09850,  0.32400,  0.08280, 100.00, 110.00,   0.00,0.00000,000.000, 0.00000, 0.00000, 0.00000, 0.00000, 1
     50,     57,'1 ',  0.04740,  0.13400,  0.03320, 100.00, 110.00,   0.00,0.00000,000.000, 0.00000, 0.00000, 0.00000, 0.00000, 1
     51,     52,'1 ',  0.02030,  0.05880,  0.01396, 100.00, 110.00,   0.00,0.00000,000.000, 0.00000, 0.00000, 0.00000, 0.00000, 1
     51,     58,'1 ',  0.02550,  0.07190,  0.01788, 100.00, 110.00,   0.00,0.00000,000.000, 0.00000, 0.00000, 0.00000, 0.00000, 1
     52,     53,'1 ',  0.04050,  0.16350,  0.04058, 100.00, 110.00,   0.00,0.00000,000.000, 0.00000, 0.00000, 0.00000, 0.00000, 1
     53,     54,'1 ',  0.02630,  0.12200,  0.03100, 100.00, 110.00,   0.00,0.00000,000.000, 0.00000, 0.00000, 0.00000, 0.00000, 1
     54,     55,'1 ',  0.01690,  0.07070,  0.02020, 100.00, 110.00,   0.00,0.00000,000.000, 0.00000, 0.00000, 0.00000, 0.00000, 1
     54,     56,'1 ',  0.00275,  0.00955,  0.00732, 100.00, 110.00,   0.00,0.00000,000.000, 0.00000, 0.00000, 0.00000, 0.00000, 1
     54,     59,'1 ',  0.05030,  0.22930,  0.05980, 100.00, 110.00,   0.00,0.00000,000.000, 0.00000, 0.00000, 0.00000, 0.00000, 1
     55,     56,'1 ',  0.00488,  0.01510,  0.00374, 100.00, 110.00,   0.00,0.00000,000.000, 0.00000, 0.00000, 0.00000, 0.00000, 1
     55,     59,'1 ',  0.04739,  0.21580,  0.05646, 100.00, 110.00,   0.00,0.00000,000.000, 0.00000, 0.00000, 0.00000, 0.00000, 1
     56,     57,'1 ',  0.03430,  0.09660,  0.02420, 100.00, 110.00,   0.00,0.00000,000.000, 0.00000, 0.00000, 0.00000, 0.00000, 1
     56,     58,'1 ',  0.03430,  0.09660,  0.02420, 120.00, 110.00,   0.00,0.00000,000.000, 0.00000, 0.00000, 0.00000, 0.00000, 1
     56,     59,'1 ',  0.02190,  0.07810,  0.15696, 100.00, 110.00,   0.00,0.00000,000.000, 0.00000, 0.00000, 0.00000, 0.00000, 1
     59,     60,'1 ',  0.03170,  0.14500,  0.03760, 100.00, 110.00,   0.00,0.00000,000.000, 0.00000, 0.00000, 0.00000, 0.00000, 1
     59,     61,'1 ',  0.03280,  0.15000,  0.03880, 100.00, 110.00,   0.00,0.00000,000.000, 0.00000, 0.00000, 0.00000, 0.00000, 1
     63,     59,'1 ',  0.00000,  0.03860,  0.00000, 100.00, 110.00,   0.00,0.96000,  0.000, 0.00000, 0.00000,00.00000,00.00000, 1
     60,     61,'1 ',  0.00264,  0.01350,  0.01456, 170.00, 110.00,   0.00,0.00000,000.000, 0.00000, 0.00000, 0.00000, 0.00000, 1
     60,     62,'1 ',  0.01230,  0.05610,  0.01468, 200.00, 110.00,   0.00,0.00000,000.000, 0.00000, 0.00000, 0.00000, 0.00000, 1
     61,     62,'1 ',  0.00824,  0.03760,  0.00980, 100.00, 110.00,   0.00,0.00000,000.000, 0.00000, 0.00000, 0.00000, 0.00000, 1
     64,     61,'1 ',  0.00000,  0.02680,  0.00000, 100.00, 110.00,   0.00,0.98500,  0.000, 0.00000, 0.00000,00.00000,00.00000, 1
     62,     66,'1 ',  0.04820,  0.21800,  0.05780, 100.00, 110.00,   0.00,0.00000,000.000, 0.00000, 0.00000, 0.00000, 0.00000, 1
     62,     67,'1 ',  0.02580,  0.11700,  0.03100, 220.00, 110.00,   0.00,0.00000,000.000, 0.00000, 0.00000, 0.00000, 0.00000, 1
     63,     64,'1 ',  0.00172,  0.02000,  0.21600, 120.00, 110.00,   0.00,0.00000,000.000, 0.00000, 0.00000, 0.00000, 0.00000, 1
     64,     65,'1 ',  0.00269,  0.03020,  0.38000, 120.00, 110.00,   0.00,0.00000,000.000, 0.00000, 0.00000, 0.00000, 0.00000, 1
     65,     66,'1 ',  0.00000,  0.03700,  0.00000, 100.00, 110.00,   0.00,0.93500,  0.000, 0.00000, 0.00000,00.00000,00.00000, 1
     65,     68,'1 ',  0.00138,  0.01600,  0.63800, 100.00, 110.00,   0.00,0.00000,000.000, 0.00000, 0.00000, 0.00000, 0.00000, 1
     66,     67,'1 ',  0.02240,  0.10150,  0.02682, 100.00, 110.00,   0.00,0.00000,000.000, 0.00000, 0.00000, 0.00000, 0.00000, 1
     68,     69,'1 ',  0.00000,  0.03700,  0.00000, 100.00, 110.00,   0.00,0.93500,  0.000, 0.00000, 0.00000,00.00000,00.00000, 1
     68,     81,'1 ',  0.00175,  0.02020,  0.80800, 100.00, 110.00,   0.00,0.00000,000.000, 0.00000, 0.00000, 0.00000, 0.00000, 1
     68,    116,'1 ',  0.00034,  0.00405,  0.16400, 100.00, 110.00,   0.00,0.00000,000.000, 0.00000, 0.00000, 0.00000, 0.00000, 1
     69,     70,'1 ',  0.03000,  0.12700,  0.12200, 100.00, 110.00,   0.00,0.00000,000.000, 0.00000, 0.00000, 0.00000, 0.00000, 1
     69,     75,'1 ',  0.04050,  0.12200,  0.12400, 165.00, 110.00,   0.00,0.00000,000.000, 0.00000, 0.00000, 0.00000, 0.00000, 1
     69,     77,'1 ',  0.03090,  0.10100,  0.10380, 100.00, 110.00,   0.00,0.00000,000.000, 0.00000, 0.00000, 0.00000, 0.00000, 1
     70,     71,'1 ',  0.00882,  0.03550,  0.00878, 100.00, 110.00,   0.00,0.00000,000.000, 0.00000, 0.00000, 0.00000, 0.00000, 1
     70,     74,'1 ',  0.04010,  0.13230,  0.03368, 100.00, 110.00,   0.00,0.00000,000.000, 0.00000, 0.00000, 0.00000, 0.00000, 1
     70,     75,'1 ',  0.04280,  0.14100,  0.03600, 100.00, 110.00,   0.00,0.00000,000.000, 0.00000, 0.00000, 0.00000, 0.00000, 1
     71,     72,'1 ',  0.04460,  0.18000,  0.04444, 165.00, 110.00,   0.00,0.00000,000.000, 0.00000, 0.00000, 0.00000, 0.00000, 1
     71,     73,'1 ',  0.00866,  0.04540,  0.01178, 100.00, 110.00,   0.00,0.00000,000.000, 0.00000, 0.00000, 0.00000, 0.00000, 1
     74,     75,'1 ',  0.01230,  0.04060,  0.01034, 100.00, 110.00,   0.00,0.00000,000.000, 0.00000, 0.00000, 0.00000, 0.00000, 1
     75,     77,'1 ',  0.06010,  0.19990,  0.04978, 100.00, 110.00,   0.00,0.00000,000.000, 0.00000, 0.00000, 0.00000, 0.00000, 1
     75,    118,'1 ',  0.01450,  0.04810,  0.01198, 100.00, 110.00,   0.00,0.00000,000.000, 0.00000, 0.00000, 0.00000, 0.00000, 1
     76,     77,'1 ',  0.04440,  0.14800,  0.03680, 100.00, 110.00,   0.00,0.00000,000.000, 0.00000, 0.00000, 0.00000, 0.00000, 1
     76,    118,'1 ',  0.01640,  0.05440,  0.01356, 100.00, 110.00,   0.00,0.00000,000.000, 0.00000, 0.00000, 0.00000, 0.00000, 1
     77,     78,'1 ',  0.00376,  0.01240,  0.01264, 100.00, 110.00,   0.00,0.00000,000.000, 0.00000, 0.00000, 0.00000, 0.00000, 1
     77,     80,'1 ',  0.01080,  0.03320,  0.07000, 100.00, 110.00,   0.00,0.00000,000.000, 0.00000, 0.00000, 0.00000, 0.00000, 1
     77,     82,'1 ',  0.02980,  0.08530,  0.08174, 100.00, 110.00,   0.00,0.00000,000.000, 0.00000, 0.00000, 0.00000, 0.00000, 1
     78,     79,'1 ',  0.00546,  0.02440,  0.00648, 100.00, 110.00,   0.00,0.00000,000.000, 0.00000, 0.00000, 0.00000, 0.00000, 1
     79,     80,'1 ',  0.01560,  0.07040,  0.01870, 100.00, 110.00,   0.00,0.00000,000.000, 0.00000, 0.00000, 0.00000, 0.00000, 1
     81,     80,'1 ',  0.00000,  0.03700,  0.00000, 100.00, 110.00,   0.00,0.93500,  0.000, 0.00000, 0.00000,00.00000,00.00000, 1
     80,     96,'1 ',  0.03560,  0.18200,  0.04940, 100.00, 110.00,   0.00,0.00000,000.000, 0.00000, 0.00000, 0.00000, 0.00000, 1
     80,     97,'1 ',  0.01830,  0.09340,  0.02540, 100.00, 110.00,   0.00,0.00000,000.000, 0.00000, 0.00000, 0.00000, 0.00000, 1
     80,     98,'1 ',  0.02380,  0.10800,  0.02860, 100.00, 110.00,   0.00,0.00000,000.000, 0.00000, 0.00000, 0.00000, 0.00000, 1
     80,     99,'1 ',  0.04540,  0.20600,  0.05460, 100.00, 110.00,   0.00,0.00000,000.000, 0.00000, 0.00000, 0.00000, 0.00000, 1
     82,     83,'1 ',  0.01120,  0.03665,  0.03796, 100.00, 110.00,   0.00,0.00000,000.000, 0.00000, 0.00000, 0.00000, 0.00000, 1
     82,     96,'1 ',  0.01620,  0.05300,  0.05440, 175.00, 110.00,   0.00,0.00000,000.000, 0.00000, 0.00000, 0.00000, 0.00000, 1
     83,     84,'1 ',  0.06250,  0.13200,  0.02580, 280.00, 110.00,   0.00,0.00000,000.000, 0.00000, 0.00000, 0.00000, 0.00000, 1
     83,     85,'1 ',  0.04300,  0.14800,  0.03480, 100.00, 110.00,   0.00,0.00000,000.000, 0.00000, 0.00000, 0.00000, 0.00000, 1
     84,     85,'1 ',  0.03020,  0.06410,  0.01234, 100.00, 110.00,   0.00,0.00000,000.000, 0.00000, 0.00000, 0.00000, 0.00000, 1
     85,     86,'1 ',  0.03500,  0.12300,  0.02760, 100.00, 110.00,   0.00,0.00000,000.000, 0.00000, 0.00000, 0.00000, 0.00000, 1
     85,     88,'1 ',  0.02000,  0.10200,  0.02760, 100.00, 110.00,   0.00,0.00000,000.000, 0.00000, 0.00000, 0.00000, 0.00000, 1
     85,     89,'1 ',  0.02390,  0.17300,  0.04700, 100.00, 110.00,   0.00,0.00000,000.000, 0.00000, 0.00000, 0.00000, 0.00000, 1
     86,     87,'1 ',  0.02828,  0.20740,  0.04450, 100.00, 110.00,   0.00,0.00000,000.000, 0.00000, 0.00000, 0.00000, 0.00000, 1
     88,     89,'1 ',  0.01390,  0.07120,  0.01934, 100.00, 110.00,   0.00,0.00000,000.000, 0.00000, 0.00000, 0.00000, 0.00000, 1
     89,     90,'1 ',  0.01630,  0.06510,  0.15900, 100.00, 110.00,   0.00,0.00000,000.000, 0.00000, 0.00000, 0.00000, 0.00000, 1
     89,     92,'1 ',  0.00790,  0.03830,  0.09620, 100.00, 110.00,   0.00,0.00000,000.000, 0.00000, 0.00000, 0.00000, 0.00000, 1
     90,     91,'1 ',  0.02540,  0.08360,  0.02140, 100.00, 110.00,   0.00,0.00000,000.000, 0.00000, 0.00000, 0.00000, 0.00000, 1
     91,     92,'1 ',  0.03870,  0.12720,  0.03268, 100.00, 110.00,   0.00,0.00000,000.000, 0.00000, 0.00000, 0.00000, 0.00000, 1
     92,     93,'1 ',  0.02580,  0.08480,  0.02180, 100.00, 110.00,   0.00,0.00000,000.000, 0.00000, 0.00000, 0.00000, 0.00000, 1
     92,     94,'1 ',  0.04810,  0.15800,  0.04060, 100.00, 110.00,   0.00,0.00000,000.000, 0.00000, 0.00000, 0.00000, 0.00000, 1
     92,    100,'1 ',  0.06480,  0.29500,  0.07720, 100.00, 110.00,   0.00,0.00000,000.000, 0.00000, 0.00000, 0.00000, 0.00000, 1
     92,    102,'1 ',  0.01230,  0.05590,  0.01464, 100.00, 110.00,   0.00,0.00000,000.000, 0.00000, 0.00000, 0.00000, 0.00000, 1
     93,     94,'1 ',  0.02230,  0.07320,  0.01876, 130.00, 110.00,   0.00,0.00000,000.000, 0.00000, 0.00000, 0.00000, 0.00000, 1
     94,     95,'1 ',  0.01320,  0.04340,  0.01110, 100.00, 110.00,   0.00,0.00000,000.000, 0.00000, 0.00000, 0.00000, 0.00000, 1
     94,     96,'1 ',  0.02690,  0.08690,  0.02300, 100.00, 110.00,   0.00,0.00000,000.000, 0.00000, 0.00000, 0.00000, 0.00000, 1
     94,    100,'1 ',  0.01780,  0.05800,  0.06040, 100.00, 110.00,   0.00,0.00000,000.000, 0.00000, 0.00000, 0.00000, 0.00000, 1
     95,     96,'1 ',  0.01710,  0.05470,  0.01474, 100.00, 110.00,   0.00,0.00000,000.000, 0.00000, 0.00000, 0.00000, 0.00000, 1
     96,     97,'1 ',  0.01730,  0.08850,  0.02400, 100.00, 110.00,   0.00,0.00000,000.000, 0.00000, 0.00000, 0.00000, 0.00000, 1
     98,    100,'1 ',  0.03970,  0.17900,  0.04760, 100.00, 110.00,   0.00,0.00000,000.000, 0.00000, 0.00000, 0.00000, 0.00000, 1
     99,    100,'1 ',  0.01800,  0.08130,  0.02160, 100.00, 110.00,   0.00,0.00000,000.000, 0.00000, 0.00000, 0.00000, 0.00000, 1
    100,    101,'1 ',  0.02770,  0.12620,  0.03280, 100.00, 110.00,   0.00,0.00000,000.000, 0.00000, 0.00000, 0.00000, 0.00000, 1
    100,    103,'1 ',  0.01600,  0.05250,  0.05360, 100.00, 110.00,   0.00,0.00000,000.000, 0.00000, 0.00000, 0.00000, 0.00000, 1
    100,    104,'1 ',  0.04510,  0.20400,  0.05410, 100.00, 110.00,   0.00,0.00000,000.000, 0.00000, 0.00000, 0.00000, 0.00000, 1
    100,    106,'1 ',  0.06050,  0.22900,  0.06200, 100.00, 110.00,   0.00,0.00000,000.000, 0.00000, 0.00000, 0.00000, 0.00000, 1
    101,    102,'1 ',  0.02460,  0.11200,  0.02940, 100.00, 110.00,   0.00,0.00000,000.000, 0.00000, 0.00000, 0.00000, 0.00000, 1
    103,    104,'1 ',  0.04660,  0.15840,  0.04070, 100.00, 110.00,   0.00,0.00000,000.000, 0.00000, 0.00000, 0.00000, 0.00000, 1
    103,    105,'1 ',  0.05350,  0.16250,  0.04080, 100.00, 110.00,   0.00,0.00000,000.000, 0.00000, 0.00000, 0.00000, 0.00000, 1
    103,    110,'1 ',  0.03906,  0.18130,  0.04610, 100.00, 110.00,   0.00,0.00000,000.000, 0.00000, 0.00000, 0.00000, 0.00000, 1
    104,    105,'1 ',  0.00994,  0.03780,  0.00986, 100.00, 110.00,   0.00,0.00000,000.000, 0.00000, 0.00000, 0.00000, 0.00000, 1
    105,    106,'1 ',  0.01400,  0.05470,  0.01434, 100.00, 110.00,   0.00,0.00000,000.000, 0.00000, 0.00000, 0.00000, 0.00000, 1
    105,    107,'1 ',  0.05300,  0.18300,  0.04720, 100.00, 110.00,   0.00,0.00000,000.000, 0.00000, 0.00000, 0.00000, 0.00000, 1
    105,    108,'1 ',  0.02610,  0.07030,  0.01844, 100.00, 110.00,   0.00,0.00000,000.000, 0.00000, 0.00000, 0.00000, 0.00000, 1
    106,    107,'1 ',  0.05300,  0.18300,  0.04720, 100.00, 110.00,   0.00,0.00000,000.000, 0.00000, 0.00000, 0.00000, 0.00000, 1
    108,    109,'1 ',  0.01050,  0.02880,  0.00760, 100.00, 110.00,   0.00,0.00000,000.000, 0.00000, 0.00000, 0.00000, 0.00000, 1
    109,    110,'1 ',  0.02780,  0.07620,  0.02020, 100.00, 110.00,   0.00,0.00000,000.000, 0.00000, 0.00000, 0.00000, 0.00000, 1
    110,    111,'1 ',  0.02200,  0.07550,  0.02000, 100.00, 110.00,   0.00,0.00000,000.000, 0.00000, 0.00000, 0.00000, 0.00000, 1
    110,    112,'1 ',  0.02470,  0.06400,  0.06200, 100.00, 110.00,   0.00,0.00000,000.000, 0.00000, 0.00000, 0.00000, 0.00000, 1
    114,    115,'1 ',  0.00230,  0.01040,  0.00276, 100.00, 110.00,   0.00,0.00000,000.000, 0.00000, 0.00000, 0.00000, 0.00000, 1
0 / END OF BRANCH DATA, BEGIN TRANSFORMER ADJUSTMENT DATA
0 / END OF TRANSFORMER ADJUSTMENT DATA, BEGIN AREA DATA
   1,     69,     0.0, 10.000,'Our Utility '
0 / END OF AREA DATA, BEGIN TWO-TERMINAL DC DATA
0 / END OF TWO-TERMINAL DC DATA, BEGIN SWITCHED SHUNT DATA
0 / END OF SWITCHED SHUNT DATA, BEGIN IMPEDANCE CORRECTION DATA
0 / END OF IMPEDANCE CORRECTION DATA, BEGIN MULTI-TERMINAL DC DATA
0 / END OF MULTI-TERMINAL DC DATA, BEGIN MULTI-SECTION LINE DATA
0 / END OF MULTI-SECTION LINE DATA, BEGIN ZONE DATA
    0,'ZONE0       '
0 / END OF ZONE DATA, BEGIN INTER-AREA TRANSFER DATA
0 / END OF INTER-AREA TRANSFER DATA, BEGIN OWNER DATA
    1,'OWNER1      '
    0,'OWNER0      '
0 / END OF OWNER DATA, BEGIN FACTS DEVICE DATA
