Andes_118_power_flow_test/118_converted_from_UNCC_to_PSSE_format_MATCH_RAW_VN_ALLSHEETS_out.txt
ANDES 1.9.3
Copyright (C) 2015-2022 Hantao Cui

ANDES comes with ABSOLUTELY NO WARRANTY
Case file: 118_converted_from_UNCC_to_PSSE_format_MATCH_RAW_VN_ALLSHEETS.xlsx
Report time: 01/12/2026 04:20:37 PM

Power flow converged in 4 iterations.
Flat-start: No

Statistics:
Buses                            118
Generators                        54
Committed Gens                    34
Loads                             91
Shunts                            14
Lines                            179
Transformers                       0
Areas                              1

EXTENDED SUMMARY:
                              P (pu)            Q (pu)

Generation                    38.001            7.6904
Load                           36.68             14.38

BUS DATA:
                            Bus Name            Vm(pu)          Va(rad.)

1                           RIVERSDE           0.95583           0.19094
2                            POKAGON           0.97171           0.20034
3                           HICKRYCK           0.96735           0.20679
4                           NWCARLSL             0.998            0.2722
5                              OLIVE           0.99852           0.28085
6                           KANKAKEE            0.9838           0.23319
7                           JACKSNRD           0.98547           0.22475
8                              OLIVE             1.015           0.37073
9                            BEQUINE            1.0429           0.49734
10                             BREED              1.05           0.62965
11                          SOUTHBND           0.98397            0.2269
12                          TWINBRCH              0.99           0.21737
13                           CONCORD           0.96451           0.20296
14                          GOSHENJT           0.98027           0.20515
15                           FTWAYNE           0.95756           0.20086
16                             N_ E_           0.98031           0.21255
17                          SORENSON           0.98391           0.24557
18                          MCKINLEY           0.95369           0.20768
19                           LINCOLN           0.94966           0.19763
20                             ADAMS           0.94764           0.21256
21                               JAY           0.95072           0.24021
22                          RANDOLPH           0.96471            0.2847
23                          COLLCRNR           0.99958           0.36995
24                           TRENTON             0.992            0.3677
25                          TANNRSCK              1.05           0.49134
26                          TANNRSCK             1.015           0.52402
27                           MADISON             0.968           0.27127
28                            MULLIN           0.96157           0.24103
29                             GRANT           0.96322           0.22355
30                          SORENSON            1.0039           0.33589
31                           DEERCRK             0.967           0.22554
32                          DELAWARE           0.96691           0.26057
33                          HAVILAND           0.95469           0.18993
34                          ROCKHILL           0.96556           0.20157
35                          WESTLIMA           0.95993           0.19384
36                          STERLING           0.95942           0.19389
37                          EASTLIMA           0.97058           0.21023
38                          EASTLIMA            0.9921            0.3036
39                          NWLIBRTY           0.96249           0.14641
40                          WEST END              0.97            0.1257
41                          S_TIFFIN           0.96682           0.11859
42                            HOWARD             0.985           0.14827
43                          S_KENTON           0.96358           0.20054
44                          WMVERNON           0.97866           0.24449
45                          N_NEWARK            0.9836           0.27656
46                          W_LANCST             1.005           0.32518
47                          CROOKSVL            1.0171            0.3641
48                          ZANESVLL            1.0206           0.35069
49                             PHILO             1.025           0.36829
50                          WCAMBRDG            1.0015            0.3342
51                          NEWCMRST           0.96761           0.29037
52                          SCOSHOCT           0.95747           0.27419
53                           WOOSTER           0.94628           0.25837
54                            TORREY             0.955           0.27515
55                          WAGENHLS           0.95247           0.27002
56                          SUNNYSDE           0.95537           0.27397
57                          WNWPHIL1           0.97165           0.29283
58                          WNWPHIL2           0.96006           0.27823
59                              TIDD             0.985           0.33351
60                          SWKAMMER           0.99309           0.40208
61                          W_KAMMER             0.995           0.41772
62                           NATRIUM           0.99771            0.4075
63                              TIDD           0.99237           0.39506
64                            KAMMER            0.9982           0.42628
65                          MUSKNGUM             1.005           0.48287
66                          MUSKNGUM              1.05           0.48061
67                          SUMMERFL            1.0195           0.43347
68                             SPORN            1.0123           0.47999
69                             SPORN             1.035            0.5236
70                          PORTSMTH           0.98108           0.39467
71                          NPORTSMT           0.98537            0.3871
72                          HILLSBRO              0.98           0.36757
73                          SARGENTS             0.991           0.38312
74                          BELLEFNT           0.95785            0.3771
75                          STHPOINT           0.96566           0.39961
76                            DARRAH           0.93751           0.38042
77                            TURNER            1.0038           0.46597
78                          CHEMICAL            1.0014           0.46048
79                          CAPITLHL            1.0077           0.46545
80                          CABINCRK              1.04           0.50393
81                           KANAWHA             1.028           0.48778
82                             LOGAN            0.9887           0.47425
83                            SPRIGG           0.98531           0.49484
84                          BETSYLNE            0.9818           0.53859
85                          BEAVERCK           0.98763           0.56543
86                            HAZARD           0.98837           0.54191
87                          PINEVLLE             1.015           0.54666
88                           FREMONT           0.98854            0.6202
89                          CLINCHRV             1.005           0.69113
90                           HOLSTON             0.985           0.57954
91                          HOLSTONT              0.98           0.57991
92                          SALTVLLE           0.99333           0.58835
93                          TAZEWELL           0.98758           0.53602
94                          SWITCHBK            0.9909           0.49857
95                          CALDWELL           0.98116           0.48167
96                          BAILEYSV           0.99279           0.47881
97                           SUNDIAL            1.0114           0.48526
98                           BRADLEY            1.0235           0.47688
99                            HINTON              1.01           0.47058
100                         GLEN LYN             1.017           0.48798
101                            WYTHE           0.99291            0.5153
102                           SMYTHE           0.99187           0.56221
103                          CLAYTOR              1.01           0.42288
104                          HANCOCK           0.97442           0.37717
105                          ROANOKE           0.97078           0.35737
106                         CLOVERDL           0.96496           0.35345
107                          REUSENS             0.952           0.30598
108                           BLAINE           0.97002           0.33723
109                         FRANKLIN           0.97001           0.32962
110                         FIELDALE           0.97377           0.31553
111                         DANRIVER              0.98           0.34445
112                         DANVILLE             0.975            0.2618
113                         DEER CRK             0.993           0.24222
114                         WMEDFORD           0.96237           0.25528
115                          MEDFORD           0.96202           0.25522
116                         KYGERCRK             1.005           0.47322
117                            COREY           0.97382           0.19047
118                         WHUNTNGD           0.94595           0.38258

LINE DATA:
                           Line Name     Fr. Bus (idx)      To Bus (idx)       P From (pu)       Q From (pu)         P To (pu)         Q To (pu)

Line_1                        Line_1                 1                 2          -0.12208          -0.12611           0.12301           0.10558
Line_2                        Line_2                 1                 3          -0.38792          -0.14389           0.39031           0.14176
Line_3                        Line_3                 2                12          -0.32301          -0.19558           0.32578           0.18957
Line_4                        Line_4                 3                 5          -0.68449          -0.11516           0.69682           0.14299
Line_5                        Line_5                 3                12         -0.095829           -0.1266          0.096903           0.09126
Line_6                        Line_6                 4                 5           -1.0425           0.16907            1.0444          -0.16222
Line_7                        Line_7                 4                11           0.65247          0.011204          -0.64353         0.0010629
Line_8                        Line_8                 5                 6           0.88821          0.089931          -0.87868         -0.060703
Line_9                        Line_9                 8                 5            3.4071           0.77987           -3.4071          -0.46326
Line_10                      Line_10                 5                11            0.7776        -0.0062448          -0.76529          0.030528
Line_11                      Line_11                 6                 7           0.35868           -0.1593          -0.35795           0.15726
Line_12                      Line_12                 7                12           0.16795          -0.17726          -0.16744           0.17077
Line_13                      Line_13                 8                 9           -4.4063          -0.89733            4.4525           0.24429
Line_14                      Line_14                 8                30           0.71928          -0.08946          -0.71699          -0.40748
Line_15                      Line_15                 9                10           -4.4525          -0.24429               4.5          -0.51042
Line_16                      Line_16                11                12           0.35039           -0.4091          -0.34862           0.41004
Line_17                      Line_17                11                13           0.35842           0.14751          -0.35491          -0.15377
Line_18                      Line_18                12                14            0.1917          0.070093          -0.19076         -0.084617
Line_19                      Line_19                12                16           0.08015          0.084352         -0.079817          -0.10381
Line_20                      Line_20                12               117           0.20153          0.051973              -0.2             -0.08
Line_21                      Line_21                13                15          0.014907        -0.0062333         -0.014847         -0.051461
Line_22                      Line_22                14                15          0.050759          0.074617         -0.049996          -0.11925
Line_23                      Line_23                15                17           -1.0368          -0.26312            1.0531           0.27531
Line_24                      Line_24                15                19           0.12182           0.15037          -0.12131          -0.15789
Line_25                      Line_25                15                33          0.079797         -0.016541         -0.079533         -0.011794
Line_26                      Line_26                16                17          -0.17018         0.0038102           0.17158         -0.043201
Line_27                      Line_27                17                18           0.80286            0.4002          -0.79257          -0.37014
Line_28                      Line_28                30                17            2.2961           0.61967           -2.2961           -0.4019
Line_29                      Line_29                17                31           0.14154          0.045429          -0.14035         -0.079486
Line_30                      Line_30                17               113          0.017005          -0.30584         -0.016141           0.30118
Line_31                      Line_31                18                19           0.19257          0.030142           -0.1921         -0.038407
Line_32                      Line_32                19                20          -0.10619          0.026646           0.10655         -0.051793
Line_33                      Line_33                19                34         -0.030401         -0.080353          0.030702          0.023383
Line_34                      Line_34                20                21          -0.28655          0.021793           0.28824         -0.033397
Line_35                      Line_35                21                22          -0.42824         -0.046603           0.43251          0.043855
Line_36                      Line_36                22                23          -0.53251         -0.093855           0.54314           0.10428
Line_37                      Line_37                23                24          0.081548           0.10689         -0.081223          -0.15509
Line_38                      Line_38                23                25           -1.6306          -0.25858            1.6729            0.3844
Line_39                      Line_39                23                32           0.93596          0.017406          -0.90798         -0.029086
Line_40                      Line_40                24                70          -0.06363         -0.022657          0.063641          -0.07459
Line_41                      Line_41                24                72          0.014853          0.033025         -0.014681         -0.079778
Line_42                      Line_42                26                25           0.91174          -0.91507          -0.91174           0.97694
Line_43                      Line_43                25                27            1.4389           0.30066           -1.3746          -0.15106
Line_44                      Line_44                26                30            2.2283          -0.33409           -2.1896          -0.17516
Line_45                      Line_45                27                28           0.33002        -0.0061572          -0.32779        -0.0040093
Line_46                      Line_46                27                32           0.12549         -0.032447          -0.12509          0.015733
Line_47                      Line_47                27               115           0.20906          0.024166          -0.20828         -0.038985
Line_48                      Line_48                28                29           0.15779         -0.065991          -0.15708          0.046795
Line_49                      Line_49                29                31         -0.082921         -0.086795          0.083081          0.079555
Line_50                      Line_50                30                38           0.61052          -0.03703          -0.60866          -0.36165
Line_51                      Line_51                31                32          -0.30273          0.086524           0.30596         -0.099322
Line_52                      Line_52                32               113          0.045231          -0.16137         -0.043859           0.11615
Line_53                      Line_53                32               114          0.091887          0.044049         -0.091726         -0.058471
Line_54                      Line_54                33                37          -0.15047         -0.078206           0.15167          0.048405
Line_55                      Line_55                34                36           0.30527            0.1203          -0.30426          -0.12244
Line_56                      Line_56                34                37          -0.93397          -0.26283           0.93655           0.26307
Line_57                      Line_57                34                43         0.0079961         -0.010327        -0.0079894         -0.028964
Line_58                      Line_58                35                36         0.0057478          0.045112        -0.0057425         -0.047556
Line_59                      Line_59                35                37          -0.33575          -0.13511           0.33729           0.12981
Line_60                      Line_60                38                37            2.3939           0.68103           -2.3939          -0.44501
Line_61                      Line_61                37                39           0.54036         -0.084295          -0.53024          0.092503
Line_62                      Line_62                37                40           0.42807          -0.14749          -0.41551           0.14354
Line_63                      Line_63                38                65           -1.7853          -0.31938            1.8148          -0.40053
Line_64                      Line_64                39                40           0.26024           -0.2025          -0.25813           0.19493
Line_65                      Line_65                40                41           0.14328          0.015414          -0.14295         -0.025788
Line_66                      Line_66                40                42          -0.12964         -0.060785           0.13072          0.019818
Line_67                      Line_67                41                42          -0.22705         -0.074212           0.22946          0.049379
Line_68                      Line_68                42                49           -1.3202           0.11594            1.3859         0.0069904
Line_69                      Line_69                43                44          -0.17201         -0.041036           0.17396        -0.0083296
Line_70                      Line_70                44                45          -0.33396          0.024107            0.3366         -0.035064
Line_71                      Line_71                45                46           -0.3657         -0.054783           0.37129          0.040911
Line_72                      Line_72                45                49           -0.5009         -0.033406           0.51865          0.036868
Line_73                      Line_73                46                47          -0.31205         -0.012031           0.31571        -0.0080262
Line_74                      Line_74                46                48          -0.14924         -0.057714           0.15063          0.013676
Line_75                      Line_75                47                49         -0.099873          -0.10663           0.10024          0.091091
Line_76                      Line_76                47                69          -0.55584           0.11465           0.58292           -0.1002
Line_77                      Line_77                48                49          -0.35063          0.032576           0.35277         -0.039702
Line_78                      Line_78                49                50           0.51646           0.13437          -0.50915          -0.13303
Line_79                      Line_79                49                51           0.64279           0.20538          -0.62137          -0.17898
Line_80                      Line_80                49                54           0.71759           0.25008          -0.69407          -0.30905
Line_81                      Line_81                49                66            -2.603          0.073591            2.6611            0.1701
Line_82                      Line_82                49                69          -0.46147           0.10457           0.48349          -0.11998
Line_83                      Line_83                50                57           0.33915           0.09303          -0.33315          -0.10838
Line_84                      Line_84                51                52           0.27985          0.065663          -0.27803         -0.073351
Line_85                      Line_85                51                58           0.17152          0.033312          -0.17067          -0.04753
Line_86                      Line_86                52                53          0.098034          0.023351         -0.097532         -0.058093
Line_87                      Line_87                53                54          -0.13247         -0.051907           0.13303          0.026479
Line_88                      Line_88                54                55          0.070093         0.0083353         -0.069996         -0.026305
Line_89                      Line_89                54                56          0.093954         -0.067523         -0.093915           0.06098
Line_90                      Line_90                54                59            -0.253         -0.089731           0.25674          0.050526
Line_91                      Line_91                55                56          -0.26863         -0.097266           0.26907          0.095215
Line_92                      Line_92                55                59          -0.29137          -0.09643           0.29607          0.064818
Line_93                      Line_93                56                57           -0.2112         -0.095375           0.21315          0.078381
Line_94                      Line_94                56                58         -0.050546         -0.039372          0.050672           0.01753
Line_95                      Line_95                56                59           -0.7534          -0.20145           0.76743           0.10368
Line_96                      Line_96                59                60          -0.44929           0.04086             0.456         -0.046952
Line_97                      Line_97                59                61          -0.53337          0.055297           0.54318         -0.048494
Line_98                      Line_98                63                59            1.5576           0.23744           -1.5576          -0.14014
Line_99                      Line_99                60                61           -1.1276          0.081999            1.1311         -0.078871
Line_100                    Line_100                60                62          -0.10835         -0.065047           0.10854          0.051359
Line_101                    Line_101                61                62           0.24293          -0.12855          -0.24231           0.12165
Line_102                    Line_102                64                61           0.31718            0.1205          -0.31718           -0.1174
Line_103                    Line_103                62                66          -0.38242          -0.17067           0.39048           0.14647
Line_104                    Line_104                62                67           -0.2538          -0.14234           0.25589           0.12026
Line_105                    Line_105                63                64           -1.5576          -0.23744            1.5618          0.073088
Line_106                    Line_106                64                65            -1.879          -0.19358            1.8886         -0.080623
Line_107                    Line_107                65                66          0.064317           -1.2222         -0.064317            1.2771
Line_108                    Line_108                65                68           0.14232          -0.79478          -0.14199           0.14952
Line_109                    Line_109                66                67           0.54275           0.19262          -0.53589          -0.19026
Line_110                    Line_110                68                69           -1.2346          -0.59327            1.2346             0.661
Line_111                    Line_111                68                81          -0.46551           -1.1561           0.46683            0.3303
Line_112                    Line_112                68               116            1.8421            1.5999             -1.84           -1.7421
Line_113                    Line_113                69                70            1.0868           0.18369            -1.052          -0.16036
Line_114                    Line_114                69                75            1.1073           0.21711           -1.0579          -0.19255
Line_115                    Line_115                69                77           0.63607          0.086894          -0.62382          -0.15472
Line_116                    Line_116                70                71           0.16651          -0.16322          -0.16603           0.15669
Line_117                    Line_117                70                74           0.16244           0.10795          -0.16069          -0.13387
Line_118                    Line_118                70                75       -0.00056197          0.090212         0.0010762          -0.12263
Line_119                    Line_119                71                72           0.10583         -0.017394          -0.10532          -0.02344
Line_120                    Line_120                71                73          0.060191          -0.13929             -0.06           0.12879
Line_121                    Line_121                74                75          -0.51931         -0.026037           0.52293          0.028427
Line_122                    Line_122                75                77           -0.3427         -0.093595           0.35058          0.071544
Line_123                    Line_123                75               118           0.40659           0.27035          -0.40283          -0.26884
Line_124                    Line_124                76                77          -0.60755          -0.23041           0.62851           0.26558
Line_125                    Line_125                76               118         -0.072451          -0.12959          0.072834           0.11884
Line_126                    Line_126                77                78           0.46016          0.044588          -0.45936         -0.054656
Line_127                    Line_127                77                80           -1.3948          -0.65419            1.4198            0.6578
Line_128                    Line_128                77                82         -0.030593           0.14721          0.031671          -0.22525
Line_129                    Line_129                78                79          -0.25064          -0.20534           0.25121           0.20133
Line_130                    Line_130                79                80          -0.64121          -0.31822           0.64899           0.33372
Line_131                    Line_131                81                80          -0.46683           -0.3303           0.46683           0.34175
Line_132                    Line_132                80                96            0.1884           0.20798          -0.18542           -0.2438
Line_133                    Line_133                80                97           0.26296           0.25482          -0.26056          -0.26935
Line_134                    Line_134                80                98           0.28843          0.083374          -0.28639          -0.10454
Line_135                    Line_135                80                99           0.19459          0.081879          -0.19248          -0.12968
Line_136                    Line_136                82                83          -0.47318           0.22331           0.47641           -0.2497
Line_137                    Line_137                82                96         -0.098493         -0.072546          0.098689          0.019788
Line_138                    Line_138                83                84          -0.24901           0.13856           0.25447          -0.15199
Line_139                    Line_139                83                85           -0.4274           0.10822           0.43618          -0.11185
Line_140                    Line_140                84                85          -0.36447          0.081989           0.36888         -0.084607
...